psse/psse-model/src/test/resources/IEEE_14_bus_nodeBreaker_rev35.rawx
{
     "network":{
         "caseid":{
             "fields":["ic", "sbase", "rev", "xfrrat", "nxfrat", "basfrq", "title1", "title2"],
             "data":[0, 100.00, 35, 0, 0, 60.00,
                     " 08/19/93 UW ARCHIVE           100.0  1962 W IEEE 14 Bus Test Case", ""]
         },
         "bus":{
             "fields":["ibus", "name", "baskv", "ide", "area", "zone", "owner", "vm", "va"],
             "data":[
                 [1, "Bus 1       ", 138.0000, 3, 1, 1, 1, 1.06000, 0.0000],
                 [2, "Bus 2       ", 138.0000, 2, 1, 1, 1, 1.04500, -4.9826],
                 [3, "Bus 3       ", 138.0000, 2, 1, 1, 1, 1.01000, -12.7250],
                 [4, "Bus 4       ", 138.0000, 1, 1, 1, 1, 1.01767, -10.3128],
                 [5, "Bus 5       ", 138.0000, 1, 1, 1, 1, 1.01951, -8.7738],
                 [6, "Bus 6       ", 138.0000, 2, 1, 1, 1, 1.07000, -14.2209],
                 [7, "Bus 7       ", 138.0000, 1, 1, 1, 1, 1.06152, -13.3596],
                 [8, "Bus 8       ", 138.0000, 2, 1, 1, 1, 1.09000, -13.3596],
                 [9, "Bus 9       ", 138.0000, 1, 1, 1, 1, 1.05593, -14.9385],
                 [10, "Bus 10      ", 138.0000, 1, 1, 1, 1, 1.05099, -15.0972],
                 [11, "Bus 11      ", 138.0000, 1, 1, 1, 1, 1.05691, -14.7906],
                 [12, "Bus 12      ", 138.0000, 1, 1, 1, 1, 1.05519, -15.0755],
                 [13, "Bus 13      ", 138.0000, 1, 1, 1, 1, 1.05038, -15.1562],
                 [14, "Bus 14      ", 138.0000, 1, 1, 1, 1, 1.03553, -16.0336]
             ]
         },
         "load":{
             "fields":["ibus", "loadid", "stat", "area", "zone", "pl", "ql", "ip", "iq", "yp", "yq", "owner", "scale"],
             "data":[
                 [2, "1 ", 1, 1, 1, 21.700, 12.700, 0.000, 0.000, 0.000, -0.000, 1, 1],
                 [3, "1 ", 1, 1, 1, 94.200, 19.000, 0.000, 0.000, 0.000, -0.000, 1, 1],
                 [4, "1 ", 1, 1, 1, 47.800, -3.900, 0.000, 0.000, 0.000, -0.000, 1, 1],
                 [5, "1 ", 1, 1, 1, 7.600, 1.600, 0.000, 0.000, 0.000, -0.000, 1, 1],
                 [6, "1 ", 1, 1, 1, 11.200, 7.500, 0.000, 0.000, 0.000, -0.000, 1, 1],
                 [9, "1 ", 1, 1, 1, 29.500, 16.600, 0.000, 0.000, 0.000, -0.000, 1, 1],
                 [10, "1 ", 1, 1, 1, 9.000, 5.800, 0.000, 0.000, 0.000, -0.000, 1, 1],
                 [11, "1 ", 1, 1, 1, 3.500, 1.800, 0.000, 0.000, 0.000, -0.000, 1, 1],
                 [12, "1 ", 1, 1, 1, 6.100, 1.600, 0.000, 0.000, 0.000, -0.000, 1, 1],
                 [13, "1 ", 1, 1, 1, 13.500, 5.800, 0.000, 0.000, 0.000, -0.000, 1, 1],
                 [14, "1 ", 1, 1, 1, 14.900, 5.000, 0.000, 0.000, 0.000, -0.000, 1, 1]
             ]
         },
         "fixshunt":{
             "fields":["ibus", "shntid", "stat", "gl", "bl"],
             "data":[
                 [9, " 1", 1, 0.000, 19.000]
             ]
         },
         "generator":{
             "fields":["ibus", "machid", "pg", "qg", "qt", "qb", "vs", "ireg", "mbase", "zr", "zx", "rt", "xt", "gtap", "stat",
                       "rmpct", "pt", "pb", "o1", "f1", "o2", "f2", "o3", "f3", "o4", "f4", "wmod", "wpf"],
             "data":[
                 [1, "1 ", 232.392, -16.549, 0.000, 0.000, 1.06000, 0, 615.000, 0.00000, 1.00000, 0.00000, 0.00000, 1.00000, 1,
                  100.0, 10000.000, -10000.000, 1, 1.0000, 0, 1.0000, 0, 1.0000, 0, 1.0000, 0, 1.0000],
                 [2, "1 ", 40.000, 43.556, 50.000, -40.000, 1.04500, 0, 60.000, 0.00000, 1.00000, 0.00000, 0.00000, 1.00000, 1,  
                  100.0, 10000.000, -10000.000, 1, 1.0000, 0, 1.0000, 0, 1.0000, 0, 1.0000, 0, 1.0000],
                 [3, "1 ", 0.000, 25.075, 40.000, 0.000, 1.01000, 0, 60.000, 0.00000, 1.00000, 0.00000, 0.00000, 1.00000, 1,  
                  100.0, 10000.000, -10000.000, 1, 1.0000, 0, 1.0000, 0, 1.0000, 0, 1.0000,0, 1.0000],
                 [6, "1 ", 0.000, 12.730, 24.000, -6.000, 1.07000, 0, 25.000, 0.00000, 1.00000, 0.00000, 0.00000, 1.00000, 1,  
                  100.0, 10000.000, -10000.000, 1, 1.0000, 0, 1.0000, 0, 1.0000, 0, 1.0000,0, 1.0000],
                 [8, "1 ", 0.000, 17.623, 24.000, -6.000, 1.09000, 0, 25.000, 0.00000, 1.00000, 0.00000, 0.00000, 1.00000, 1,  
                  100.0, 10000.000, -10000.000, 1, 1.0000, 0, 1.0000, 0, 1.0000, 0, 1.0000, 0, 1.0000]
             ]
         },
         "acline":{
             "fields":["ibus", "jbus", "ckt", "rpu", "xpu", "bpu", "rate1", "rate2", "rate3", "gi", "bi", "gj", "bj", "stat",
                       "met", "len", "o1", "f1", "o2", "f2", "o3", "f3", "o4", "f4"],
             "data":[
                 [1, 2, "1 ", 0.01938, 0.05917, 0.05280, 0.00, 0.00, 0.00, 0.00000, 0.00000, 0.00000, 0.00000, 1,
                  1, 0.0, 1, 1.0000, 0, 1.0000, 0, 1.0000, 0, 1.0000],
                 [1, 5, "1 ", 0.05403, 0.22304, 0.04920, 0.00, 0.00, 0.00, 0.00000, 0.00000, 0.00000, 0.00000, 1,
                  1, 0.0, 1, 1.0000, 0, 1.0000, 0, 1.0000, 0, 1.0000],
                 [2, 3, "1 ", 0.04699, 0.19797, 0.04380, 0.00, 0.00, 0.00, 0.00000, 0.00000, 0.00000, 0.00000, 1,
                  1, 0.0, 1, 1.0000, 0, 1.0000, 0, 1.0000, 0, 1.0000],
                 [2, 4, "1 ", 0.05811, 0.17632, 0.03400, 0.00, 0.00, 0.00, 0.00000, 0.00000, 0.00000, 0.00000, 1,
                  1, 0.0, 1, 1.0000, 0, 1.0000, 0, 1.0000, 0, 1.0000],
                 [2, 5, "1 ", 0.05695, 0.17388, 0.03460, 0.00, 0.00, 0.00, 0.00000, 0.00000, 0.00000, 0.00000, 1,
                  1, 0.0, 1, 1.0000, 0, 1.0000, 0, 1.0000, 0, 1.0000],
                 [3, 4, "1 ", 0.06701, 0.17103, 0.01280, 0.00, 0.00, 0.00, 0.00000, 0.00000, 0.00000, 0.00000, 1,
                  1, 0.0, 1, 1.0000, 0, 1.0000, 0, 1.0000, 0, 1.0000],
                 [4, 5, "1 ", 0.01335, 0.04211, 0.00000, 0.00, 0.00, 0.00, 0.00000, 0.00000, 0.00000, 0.00000, 1,
                  1, 0.0, 1, 1.0000, 0, 1.0000, 0, 1.0000, 0, 1.0000],
                 [6, 11, "1 ", 0.09498, 0.19890, 0.00000, 0.00, 0.00, 0.00, 0.00000, 0.00000, 0.00000, 0.00000, 1,
                  1, 0.0, 1, 1.0000, 0, 1.0000, 0, 1.0000, 0, 1.0000],
                 [6, 12, "1 ", 0.12291, 0.25581, 0.00000, 0.00, 0.00, 0.00, 0.00000, 0.00000, 0.00000, 0.00000, 1,
                  1, 0.0, 1, 1.0000, 0, 1.0000, 0, 1.0000, 0, 1.0000],
                 [6, 13, "1 ", 0.06615, 0.13027, 0.00000, 0.00, 0.00, 0.00, 0.00000, 0.00000, 0.00000, 0.00000, 1,
                  1, 0.0, 1, 1.0000, 0, 1.0000, 0, 1.0000, 0, 1.0000],
                 [7, 8, "1 ", 0.00000, 0.17615, 0.00000, 0.00, 0.00, 0.00, 0.00000, 0.00000, 0.00000, 0.00000, 1,
                  1, 0.0, 1, 1.0000, 0, 1.0000, 0, 1.0000, 0, 1.0000],
                 [7, 9, "1 ", 0.00000, 0.11001, 0.00000, 0.00, 0.00, 0.00, 0.00000, 0.00000, 0.00000, 0.00000, 1,
                  1, 0.0, 1, 1.0000, 0, 1.0000, 0, 1.0000, 0, 1.0000],
                 [9, 10, "1 ", 0.03181, 0.08450, 0.00000, 0.00, 0.00, 0.00, 0.00000, 0.00000, 0.00000, 0.00000, 1,
                  1, 0.0, 1, 1.0000, 0, 1.0000, 0, 1.0000, 0, 1.0000],
                 [9, 14, "1 ", 0.12711, 0.27038, 0.00000, 0.00, 0.00, 0.00, 0.00000, 0.00000, 0.00000, 0.00000, 1,
                  1, 0.0, 1, 1.0000, 0, 1.0000, 0, 1.0000, 0, 1.0000],
                 [10, 11, "1 ", 0.08205, 0.19207, 0.00000, 0.00, 0.00, 0.00, 0.00000, 0.00000, 0.00000, 0.00000, 1,
                  1, 0.0, 1, 1.0000, 0, 1.0000, 0, 1.0000, 0, 1.0000],
                 [12, 13, "1 ", 0.22092, 0.19988, 0.00000, 0.00, 0.00, 0.00, 0.00000, 0.00000, 0.00000, 0.00000, 1,
                  1, 0.0, 1, 1.0000, 0, 1.0000, 0, 1.0000, 0, 1.0000],
                 [13, 14, "1 ", 0.17093, 0.34802, 0.00000, 0.00, 0.00, 0.00, 0.00000, 0.00000, 0.00000, 0.00000, 1,
                  1, 0.0, 1, 1.0000, 0, 1.0000, 0, 1.0000, 0, 1.0000]
             ]
         },
         "transformer":{
             "fields":["ibus", "jbus", "kbus", "ckt", "cw", "cz", "cm", "mag1", "mag2", "nmet", "name", "stat", "o1", "f1", "o2", "f2", "o3", "f3", "o4", "f4",
                       "r1_2", "x1_2", "sbase1_2",
                       "windv1", "nomv1", "ang1", "wdg1rate1", "wdg1rate2", "wdg1rate3", "cod1", "cont1", "rma1", "rmi1", "vma1", "vmi1", "ntp1", "tab1", "cr1", "cx1",
                       "windv2", "nomv2"],
             "data":[
                 [4, 7, 0, "1 ", 1, 1, 1, 0.00000, 0.00000, 2, "        ", 1, 1, 1.0000, 0, 1.0000, 0, 1.0000, 0, 1.0000,
                  0.00000, 0.20912, 100.00,
                  0.97800, 0.000, 0.000, 0.00, 0.00, 0.00, 0, 0, 1.50000, 0.51000, 1.50000, 0.51000, 159, 0, 0.00000, 0.00000,
                  1.00000, 0.000],
                 [4, 9, 0, "1 ", 1, 1, 1, 0.00000, 0.00000, 2, "        ", 1, 1, 1.0000, 0, 1.0000, 0, 1.0000, 0, 1.0000,
                  0.00000, 0.55618, 100.00,
                  0.96900, 0.000, 0.000, 0.00, 0.00, 0.00, 0, 0, 1.50000, 0.51000, 1.50000, 0.51000, 159, 0, 0.00000, 0.00000,
                  1.00000, 0.000],
                 [5, 6, 0, "1 ", 1, 1, 1, 0.00000, 0.00000, 2, "        ", 1, 1, 1.0000, 0, 1.0000, 0, 1.0000, 0, 1.0000,
                  0.00000, 0.25202, 100.00,
                  0.93200, 0.000, 0.000, 0.00, 0.00, 0.00, 0, 0, 1.50000, 0.51000, 1.50000, 0.51000, 159, 0, 0.00000, 0.00000,
                  1.00000,  0.000]
             ]
         },
         "area":{
             "fields":["iarea", "isw", "pdes", "ptol", "arname"],
             "data":[
                 [1, 2, 0.000, 999.990, "IEEE14      "]
             ]
         },
         "owner":{
             "fields":["iowner", "owname"],
             "data":[
                 [1, "1"]
             ]
         },
		 "sub":{
             "fields":["isub", "name", "lati", "long", "srg"],
             "data":[
                 [1, "STATION 1", 0.0, 0.0, 0.1],
				 [2, "STATION 5", 0.0, 0.0, 0.1]
             ]
		},
		"subnode":{
             "fields":["isub", "inode", "name", "ibus", "stat", "vm", "va"],
             "data":[
                 [1, 1, "NB1", 1, 1, 1.0, 0.0],
				 [1, 2, "NB2", 1, 1, 1.0, 0.0],
				 [1, 3, "NL2", 1, 1, 1.0, 0.0],
				 [1, 4, "NL5", 1, 1, 1.0, 0.0],
				 [1, 5, "NG1", 1, 1, 1.0, 0.0],
				 [2, 1, "NB1", 2, 1, 1.0, 0.0],
				 [2, 2, "NB2", 2, 1, 1.0, 0.0],
				 [2, 3, "NL3", 2, 1, 1.0, 0.0],
				 [2, 4, "NL4", 2, 1, 1.0, 0.0],
				 [2, 5, "NL5", 2, 1, 1.0, 0.0],
				 [2, 6, "NL1", 2, 1, 1.0, 0.0],
				 [2, 7, "NG1", 2, 1, 1.0, 0.0],
				 [2, 8, "NLd1", 2, 1, 1.0, 0.0]
             ]
		},
		"subswd":{
             "fields":["isub", "inode", "jnode", "swdid", "name", "type", "stat", "nstat", "xpu", "rate1", "rate2", "rate3"],
             "data":[
                 [1, 1, 2, "1 ", "Sw-BusBars", 2, 1, 1, 0, 0, 0, 0],
				 [1, 1, 3, "1 ", "Sw-BranchToBus2", 2, 1, 1, 0, 0, 0, 0],
				 [1, 2, 4, "1 ", "Sw-BranchToBus5", 2, 1, 1, 0, 0, 0, 0],
				 [1, 2, 5, "1 ", "Sw-Gen1", 2, 1, 1, 0, 0, 0, 0],
				 [2, 1, 2, "1 ", "Sw-BusBars", 2, 1, 1, 0, 0, 0, 0],
				 [2, 1, 6, "1 ", "Sw-BranchToBus1", 2, 1, 1, 0, 0, 0, 0],
				 [2, 1, 7, "1 ", "Sw-Gen1", 2, 1, 1, 0, 0, 0, 0],
				 [2, 1, 8, "1 ", "Sw-Load1", 2, 1, 1, 0, 0, 0, 0],
				 [2, 2, 3, "1 ", "Sw-BranchToBus3", 2, 1, 1, 0, 0, 0, 0],
				 [2, 2, 4, "1 ", "Sw-BranchToBus4", 2, 1, 1, 0, 0, 0, 0],
				 [2, 2, 5, "1 ", "Sw-BranchToBus5", 2, 1, 1, 0, 0, 0, 0]
             ]
		},
		"subterm":{
             "fields":["isub", "inode", "type", "eqid", "ibus", "jbus", "kbus"],
             "data":[
                 [1, 5, "M", "1 ", 1, null, null],
				 [1, 3, "B", "1 ", 1, 2, null],
				 [1, 4, "B", "1 ", 1, 5, null],
				 [2, 7, "M", "1 ", 2, null, null],
				 [2, 8, "L", "1 ", 2, null, null],
				 [2, 6, "B", "1 ", 2, 1, null],
				 [2, 3, "B", "1 ", 2, 3, null],
				 [2, 4, "B", "1 ", 2, 4, null],
				 [2, 5, "B", "1 ", 2, 5, null]
             ]
		}
    }
}
